Version 4
SHEET 1 1620 792
WIRE 112 80 0 80
WIRE 144 80 112 80
WIRE 240 80 224 80
WIRE 256 80 240 80
WIRE 816 80 256 80
WIRE 960 80 896 80
WIRE 0 96 0 80
WIRE 448 144 400 144
WIRE 576 144 528 144
WIRE 0 208 0 176
WIRE 496 240 496 224
WIRE 240 256 240 80
WIRE 288 256 240 256
WIRE 400 256 400 144
WIRE 400 256 368 256
WIRE 464 256 400 256
WIRE 576 272 576 144
WIRE 576 272 528 272
WIRE 592 272 576 272
WIRE 816 272 592 272
WIRE 960 272 896 272
WIRE 464 288 400 288
WIRE 960 288 960 272
WIRE 496 336 496 304
WIRE 112 352 112 80
WIRE 288 352 112 352
WIRE 400 352 400 288
WIRE 400 352 368 352
WIRE 400 400 400 352
WIRE 960 400 960 368
WIRE 608 432 608 400
WIRE 752 432 752 400
WIRE 400 496 400 480
WIRE 608 528 608 512
WIRE 752 528 752 512
FLAG 0 208 0
FLAG 112 80 V1
FLAG 256 80 V2
FLAG 400 496 0
FLAG 960 400 0
FLAG 592 272 V_out
FLAG 752 528 0
FLAG 960 80 0
FLAG 608 528 0
FLAG 496 224 V+
FLAG 496 336 V-
FLAG 608 400 V+
FLAG 752 400 V-
SYMBOL res 128 64 M90
WINDOW 0 0 56 VBottom 2
WINDOW 3 32 56 VTop 2
SYMATTR InstName Rs
SYMATTR Value 10
SYMBOL res 384 240 R90
WINDOW 0 0 56 VBottom 2
WINDOW 3 32 56 VTop 2
SYMATTR InstName R1
SYMATTR Value 1k
SYMBOL res 544 128 R90
WINDOW 0 0 56 VBottom 2
WINDOW 3 32 56 VTop 2
SYMATTR InstName R2
SYMATTR Value 50k
SYMBOL res 384 336 R90
WINDOW 0 0 56 VBottom 2
WINDOW 3 32 56 VTop 2
SYMATTR InstName R3
SYMATTR Value 1k
SYMBOL res 384 384 R0
SYMATTR InstName R4
SYMATTR Value 50k
SYMBOL OpAmps\\OP27 496 208 R0
SYMATTR InstName U1
SYMBOL voltage 752 416 M0
WINDOW 123 0 0 Left 0
WINDOW 39 0 0 Left 0
SYMATTR InstName V2
SYMATTR Value -9V
SYMBOL current 0 176 R180
WINDOW 0 24 80 Left 2
WINDOW 3 24 0 Left 2
WINDOW 123 0 0 Left 0
WINDOW 39 0 0 Left 0
SYMATTR InstName I1
SYMATTR Value 10m
SYMBOL voltage 608 416 M0
WINDOW 123 0 0 Left 0
WINDOW 39 0 0 Left 0
SYMATTR InstName V1
SYMATTR Value 9
SYMBOL res 912 64 R90
WINDOW 0 0 56 VBottom 2
WINDOW 3 32 56 VTop 2
SYMATTR InstName R5
SYMATTR Value 100
SYMBOL res 912 256 R90
WINDOW 0 0 56 VBottom 2
WINDOW 3 32 56 VTop 2
SYMATTR InstName R6
SYMATTR Value 100
SYMBOL res 944 272 R0
SYMATTR InstName R7
SYMATTR Value 100k
TEXT -72 256 Left 2 !.tran 10
TEXT 104 16 Left 1 ;Current-sensing resistor
TEXT 632 320 Left 1 ;To microcontroller
TEXT 824 16 Left 1 ;To load
LINE Normal 704 304 704 272 2
RECTANGLE Normal 784 336 624 304 2
