Version 4
SHEET 1 1220 680
WIRE -352 0 -352 -48
WIRE -592 32 -592 0
WIRE -480 32 -480 0
WIRE 160 80 80 80
WIRE 656 80 544 80
WIRE 800 80 736 80
WIRE -16 96 -160 96
WIRE 448 96 304 96
WIRE 640 112 640 32
WIRE -112 128 -112 48
WIRE 352 128 352 48
WIRE -160 144 -160 96
WIRE -144 144 -160 144
WIRE 144 144 144 64
WIRE 304 144 304 96
WIRE 320 144 304 144
WIRE -16 160 -16 96
WIRE -16 160 -80 160
WIRE 80 160 80 80
WIRE 80 160 64 160
WIRE 112 160 80 160
WIRE 448 160 448 96
WIRE 448 160 384 160
WIRE 464 160 448 160
WIRE 544 160 544 80
WIRE 608 160 544 160
WIRE -144 176 -240 176
WIRE 240 176 240 80
WIRE 240 176 176 176
WIRE 272 176 240 176
WIRE 320 176 272 176
WIRE 112 192 64 192
WIRE 800 192 800 80
WIRE 800 192 752 192
WIRE 1008 192 800 192
WIRE 608 224 544 224
WIRE -592 256 -592 224
WIRE -480 256 -480 224
WIRE -352 256 -352 208
WIRE 544 256 544 224
WIRE -112 272 -112 192
WIRE 64 272 64 192
WIRE 352 272 352 192
WIRE 144 288 144 208
WIRE 704 304 704 272
WIRE 640 352 640 272
FLAG 64 272 0
FLAG 544 256 0
FLAG 672 272 0
FLAG -592 336 0
FLAG -592 224 V+5
FLAG -112 48 V+5
FLAG 144 64 V+5
FLAG 352 48 V+5
FLAG -480 336 0
FLAG -480 224 V-5
FLAG -352 336 0
FLAG -352 208 V_Wave
FLAG -240 176 V_Wave
FLAG -112 272 V-5
FLAG 144 288 V-5
FLAG 352 272 V-5
FLAG -592 112 0
FLAG -592 0 V+High
FLAG -480 112 0
FLAG -480 0 V-Low
FLAG 640 32 V+High
FLAG 640 352 V-Low
FLAG 1008 192 V_Out
FLAG 272 176 V_Pre
FLAG 704 304 V+5
FLAG -352 80 0
FLAG -352 -48 V_Wave_Comparsion
SYMBOL res 80 144 R90
WINDOW 0 0 56 VBottom 2
WINDOW 3 32 56 VTop 2
SYMATTR InstName R1
SYMATTR Value 10k
SYMBOL res 256 64 R90
WINDOW 0 0 56 VBottom 2
WINDOW 3 32 56 VTop 2
SYMATTR InstName R2
SYMATTR Value 50k
SYMBOL OpAmps\\LT1818 -112 160 R0
SYMATTR InstName U1
SYMBOL OpAmps\\LT1818 144 176 R0
SYMATTR InstName U2
SYMBOL OpAmps\\LT1818 352 160 R0
SYMATTR InstName U3
SYMBOL OpAmps\\ADHV4702-1 656 192 R0
SYMATTR InstName U4
SYMBOL res 560 144 R90
WINDOW 0 0 56 VBottom 2
WINDOW 3 32 56 VTop 2
SYMATTR InstName R3
SYMATTR Value 1k
SYMBOL voltage -592 240 R0
WINDOW 123 0 0 Left 0
WINDOW 39 0 0 Left 0
SYMATTR InstName V10
SYMATTR Value 5
SYMBOL voltage -480 240 R0
WINDOW 123 0 0 Left 0
WINDOW 39 0 0 Left 0
SYMATTR InstName V2
SYMATTR Value -5
SYMBOL Misc\\signal -352 240 R0
WINDOW 123 0 0 Left 0
WINDOW 39 0 0 Left 0
SYMATTR InstName V3
SYMATTR Value SINE(0 0.65 300K)
SYMBOL voltage -592 16 R0
WINDOW 123 0 0 Left 0
WINDOW 39 0 0 Left 0
SYMATTR InstName V1
SYMATTR Value 110
SYMBOL voltage -480 16 R0
WINDOW 123 0 0 Left 0
WINDOW 39 0 0 Left 0
SYMATTR InstName V4
SYMATTR Value -110
SYMBOL res 752 64 R90
WINDOW 0 0 56 VBottom 2
WINDOW 3 32 56 VTop 2
SYMATTR InstName R4
SYMATTR Value 10k
SYMBOL Misc\\signal -352 -16 R0
WINDOW 123 0 0 Left 0
WINDOW 39 0 0 Left 0
SYMATTR InstName V5
SYMATTR Value SINE(0 35 50K)
SYMBOL ind 16 48 R0
SYMATTR InstName L1
TEXT -336 392 Left 2 !.tran 0 50u 0 1u
