Version 4
SHEET 1 1240 840
WIRE 368 -176 320 -176
WIRE 320 -160 320 -176
WIRE 368 -112 368 -176
WIRE -64 -48 -176 -48
WIRE 16 -48 -64 -48
WIRE 128 -48 16 -48
WIRE 160 -48 128 -48
WIRE 288 -48 240 -48
WIRE 304 -48 288 -48
WIRE 432 -48 368 -48
WIRE 512 -48 496 -48
WIRE 608 -48 592 -48
WIRE 704 -48 608 -48
WIRE 816 -48 704 -48
WIRE -176 -32 -176 -48
WIRE -64 -32 -64 -48
WIRE 704 -32 704 -48
WIRE 128 16 128 -48
WIRE 288 16 288 -48
WIRE 368 32 368 16
WIRE -176 64 -176 48
WIRE -64 64 -64 32
WIRE 608 64 608 -48
WIRE 704 64 704 32
WIRE 16 80 16 -48
WIRE 48 80 16 80
WIRE 384 80 368 80
WIRE 464 80 448 80
WIRE 48 176 32 176
WIRE 608 176 608 144
WIRE 608 176 368 176
WIRE 608 192 608 176
WIRE -64 272 -80 272
WIRE 48 272 16 272
WIRE 384 272 368 272
WIRE 608 288 608 272
WIRE 112 352 112 336
WIRE 208 352 208 336
WIRE 304 352 304 336
WIRE 112 432 112 416
WIRE 304 448 304 432
WIRE 304 528 304 512
FLAG 112 432 0
FLAG 208 352 0
FLAG -80 272 0
FLAG -176 64 0
FLAG 608 288 0
FLAG 704 64 0
FLAG 464 80 0
FLAG -176 -48 IN
FLAG 816 -48 OUT
FLAG 304 528 0
FLAG 32 176 0
FLAG 384 272 0
FLAG -64 64 0
FLAG 320 -160 0
DATAFLAG 800 -48 ""
SYMBOL cap 96 352 R0
SYMATTR InstName C1
SYMATTR Value 0.22µ
SYMBOL res 32 256 R90
WINDOW 0 0 56 VBottom 2
WINDOW 3 32 56 VTop 2
SYMATTR InstName R1
SYMATTR Value 107K
SYMBOL VOLTAGE -176 -48 R0
WINDOW 0 27 22 Left 2
WINDOW 123 0 0 Left 2
WINDOW 39 0 0 Left 2
SYMATTR InstName V1
SYMATTR Value 12
SYMBOL ind 144 -32 R270
WINDOW 0 32 56 VTop 2
WINDOW 3 5 56 VBottom 2
SYMATTR InstName L1
SYMATTR Value 10µ
SYMATTR SpiceLine Rser=6m
SYMBOL schottky 496 -64 R90
WINDOW 0 0 32 VBottom 2
WINDOW 3 44 42 VTop 2
SYMATTR InstName D1
SYMATTR Value RB068L150
SYMATTR Description Diode
SYMATTR Type diode
SYMBOL res 592 48 R0
SYMATTR InstName R2
SYMATTR Value 1Meg
SYMBOL res 592 176 R0
SYMATTR InstName R3
SYMATTR Value 5.5k
SYMBOL cap 384 96 R270
WINDOW 0 32 32 VTop 2
WINDOW 3 0 32 VBottom 2
SYMATTR InstName C2
SYMATTR Value 1µ
SYMBOL cap 288 448 R0
WINDOW 39 24 77 Left 2
SYMATTR Value 1000p
SYMATTR InstName C3
SYMBOL cap 688 -32 R0
WINDOW 3 25 56 Left 2
SYMATTR Value .22µ
SYMATTR SpiceLine Rser=9m
SYMATTR InstName C4
SYMBOL LT8365 208 176 R0
SYMATTR InstName U1
SYMBOL res 288 336 R0
SYMATTR InstName R4
SYMATTR Value 84.5K
SYMBOL cap -80 -32 R0
SYMATTR InstName C5
SYMATTR Value 10µ
SYMBOL schottky 384 -48 R180
WINDOW 0 24 64 Left 2
WINDOW 3 -121 90 Left 2
SYMATTR InstName D2
SYMATTR Value RB068L150
SYMATTR Description Diode
SYMATTR Type diode
SYMBOL res 608 -64 R90
WINDOW 0 0 56 VBottom 2
WINDOW 3 32 56 VTop 2
SYMATTR InstName R5
SYMATTR Value 20
SYMBOL cap 368 -64 R90
WINDOW 0 0 32 VBottom 2
WINDOW 3 32 32 VTop 2
SYMATTR InstName C6
SYMATTR Value 0.1µ
TEXT 512 400 Left 2 !.tran 10 steady
TEXT -328 552 Left 2 ;Note:\n  A smaller SS capacitor is being used to reduce simulation time. See datasheet for typical values.\n  If the simulation model is not found please update with the "Sync Release" command from the "Tools" menu.\n  It remains the customer's responsibility to verify proper and reliable operation in the actual application.\n  Component substitution and printed circuit board layout may significantly affect circuit performance or reliability.\n  Contact your local sales representative for assistance. This circuit is distributed to customers only for use with LTC parts.\n  Copyright © 2020 Analog Devices Inc. All rights reserved.
TEXT 280 -208 Bottom 2 ;LT8365 - Low Iq Boost/SEPIC/Inverting DC/DC Converter with 1.5A, 150V Switch\n125V Boost Converter\nInput: 9V to 30V     Output: 125V @ 20mA, Fsw = 400KHz
